Circuit: * C:\UserData\OneDrive\PersonalProjects\18_human-emotion-recognition-based-on-eeg\src\hardware\simulations\low-pass-mfb-filter.asc

Direct Newton iteration for .op point succeeded.

Date: Tue Jan 07 20:23:59 2025
Total elapsed time: 0.039 seconds.

tnom = 27
temp = 27
method = trap
totiter = 10
traniter = 0
tranpoints = 0
accept = 0
rejected = 0
matrix size = 87
fillins = 33
solver = Normal
Matrix Compiler1:     241 opcodes
Matrix Compiler2: 6.34 KB object code size
